140
Lattice="40.0 0.0 0.0 0.0 40.0 0.0 0.0 0.0 40.0" Properties=species:S:1:pos:R:3 pbc="T T T"
Pd      12.22000000      18.05500000      20.00000000
Pd      12.22000000      20.00000000      18.05500000
Cu      12.22000000      20.00000000      21.94500000
Cu      12.22000000      21.94500000      20.00000000
Pd      14.16500000      16.11000000      20.00000000
Pd      16.11000000      14.16500000      20.00000000
Pd      16.11000000      16.11000000      18.05500000
Pd      16.11000000      16.11000000      21.94500000
Pd      14.16500000      20.00000000      16.11000000
Pd      16.11000000      18.05500000      16.11000000
Pd      16.11000000      20.00000000      14.16500000
Pd      14.16500000      18.05500000      18.05500000
Pd      14.16500000      20.00000000      20.00000000
Pd      16.11000000      18.05500000      20.00000000
Pd      16.11000000      20.00000000      18.05500000
Pd      14.16500000      18.05500000      21.94500000
Pd      14.16500000      20.00000000      23.89000000
Pd      16.11000000      18.05500000      23.89000000
Pd      16.11000000      20.00000000      21.94500000
Pd      16.11000000      20.00000000      25.83500000
Cu      16.11000000      21.94500000      16.11000000
Cu      14.16500000      21.94500000      18.05500000
Cu      14.16500000      23.89000000      20.00000000
Cu      16.11000000      21.94500000      20.00000000
Cu      16.11000000      23.89000000      18.05500000
Cu      14.16500000      21.94500000      21.94500000
Cu      16.11000000      21.94500000      23.89000000
Cu      16.11000000      23.89000000      21.94500000
Cu      16.11000000      25.83500000      20.00000000
Pd      18.05500000      12.22000000      20.00000000
Pd      20.00000000      12.22000000      18.05500000
Pd      20.00000000      12.22000000      21.94500000
Pd      18.05500000      16.11000000      16.11000000
Pd      20.00000000      14.16500000      16.11000000
Pd      20.00000000      16.11000000      14.16500000
Pd      18.05500000      14.16500000      18.05500000
Pd      18.05500000      16.11000000      20.00000000
Pd      20.00000000      14.16500000      20.00000000
Pd      20.00000000      16.11000000      18.05500000
Pd      18.05500000      14.16500000      21.94500000
Pd      18.05500000      16.11000000      23.89000000
Pd      20.00000000      14.16500000      23.89000000
Pd      20.00000000      16.11000000      21.94500000
Pd      20.00000000      16.11000000      25.83500000
Pd      18.05500000      20.00000000      12.22000000
Pd      20.00000000      18.05500000      12.22000000
Pd      18.05500000      18.05500000      14.16500000
Pd      18.05500000      20.00000000      16.11000000
Pd      20.00000000      18.05500000      16.11000000
Pd      20.00000000      20.00000000      14.16500000
Pd      18.05500000      18.05500000      18.05500000
Pd      18.05500000      20.00000000      20.00000000
Pd      20.00000000      18.05500000      20.00000000
Pd      20.00000000      20.00000000      18.05500000
Pd      18.05500000      18.05500000      21.94500000
Pd      18.05500000      20.00000000      23.89000000
Pd      20.00000000      18.05500000      23.89000000
Pd      20.00000000      20.00000000      21.94500000
Pd      18.05500000      18.05500000      25.83500000
Pd      18.05500000      20.00000000      27.78000000
Pd      20.00000000      18.05500000      27.78000000
Pd      20.00000000      20.00000000      25.83500000
Cu      20.00000000      21.94500000      12.22000000
Cu      18.05500000      21.94500000      14.16500000
Cu      18.05500000      23.89000000      16.11000000
Cu      20.00000000      21.94500000      16.11000000
Cu      20.00000000      23.89000000      14.16500000
Cu      18.05500000      21.94500000      18.05500000
Cu      18.05500000      23.89000000      20.00000000
Cu      20.00000000      21.94500000      20.00000000
Cu      20.00000000      23.89000000      18.05500000
Cu      18.05500000      21.94500000      21.94500000
Cu      18.05500000      23.89000000      23.89000000
Cu      20.00000000      21.94500000      23.89000000
Cu      20.00000000      23.89000000      21.94500000
Cu      18.05500000      21.94500000      25.83500000
Cu      20.00000000      21.94500000      27.78000000
Cu      20.00000000      23.89000000      25.83500000
Cu      20.00000000      25.83500000      16.11000000
Cu      18.05500000      25.83500000      18.05500000
Cu      18.05500000      27.78000000      20.00000000
Cu      20.00000000      25.83500000      20.00000000
Cu      20.00000000      27.78000000      18.05500000
Cu      18.05500000      25.83500000      21.94500000
Cu      20.00000000      25.83500000      23.89000000
Cu      20.00000000      27.78000000      21.94500000
Pd      21.94500000      12.22000000      20.00000000
Pd      21.94500000      16.11000000      16.11000000
Pd      21.94500000      14.16500000      18.05500000
Pd      21.94500000      16.11000000      20.00000000
Pd      23.89000000      14.16500000      20.00000000
Pd      23.89000000      16.11000000      18.05500000
Pd      21.94500000      14.16500000      21.94500000
Pd      21.94500000      16.11000000      23.89000000
Pd      23.89000000      16.11000000      21.94500000
Pd      21.94500000      20.00000000      12.22000000
Pd      21.94500000      18.05500000      14.16500000
Pd      21.94500000      20.00000000      16.11000000
Pd      23.89000000      18.05500000      16.11000000
Pd      23.89000000      20.00000000      14.16500000
Pd      21.94500000      18.05500000      18.05500000
Pd      21.94500000      20.00000000      20.00000000
Pd      23.89000000      18.05500000      20.00000000
Pd      23.89000000      20.00000000      18.05500000
Pd      21.94500000      18.05500000      21.94500000
Pd      21.94500000      20.00000000      23.89000000
Pd      23.89000000      18.05500000      23.89000000
Pd      23.89000000      20.00000000      21.94500000
Pd      21.94500000      18.05500000      25.83500000
Pd      21.94500000      20.00000000      27.78000000
Pd      23.89000000      20.00000000      25.83500000
Pd      21.94500000      21.94500000      14.16500000
Pd      21.94500000      23.89000000      16.11000000
Pd      23.89000000      21.94500000      16.11000000
Pd      21.94500000      21.94500000      18.05500000
Pd      21.94500000      23.89000000      20.00000000
Pd      23.89000000      21.94500000      20.00000000
Pd      23.89000000      23.89000000      18.05500000
Pd      21.94500000      21.94500000      21.94500000
Pd      21.94500000      23.89000000      23.89000000
Pd      23.89000000      21.94500000      23.89000000
Pd      23.89000000      23.89000000      21.94500000
Pd      21.94500000      21.94500000      25.83500000
Pd      21.94500000      25.83500000      18.05500000
Pd      21.94500000      27.78000000      20.00000000
Pd      23.89000000      25.83500000      20.00000000
Pd      21.94500000      25.83500000      21.94500000
Pd      25.83500000      16.11000000      20.00000000
Pd      25.83500000      20.00000000      16.11000000
Pd      25.83500000      18.05500000      18.05500000
Pd      25.83500000      20.00000000      20.00000000
Pd      27.78000000      18.05500000      20.00000000
Pd      27.78000000      20.00000000      18.05500000
Pd      25.83500000      18.05500000      21.94500000
Pd      25.83500000      20.00000000      23.89000000
Pd      27.78000000      20.00000000      21.94500000
Pd      25.83500000      21.94500000      18.05500000
Pd      25.83500000      23.89000000      20.00000000
Pd      27.78000000      21.94500000      20.00000000
Pd      25.83500000      21.94500000      21.94500000
